Hello guys, it's me zyablik, and i am new on github. I will be good programer i hope.
New line.
